; Filename: ./BattLeDIM/L-TOWN.inp
; WNTR: 0.3.1
; Created: 2021-07-29 11:43:04
[TITLE]
L-TOWN v1.2
L-TOWN (v1.2) was developed by KIOS Research and Innovation Center of Excellence for the BattLeDIM 2020 competition

[JUNCTIONS]
;ID                      Elevation       Demand Pattern                 
 n1                           73.2105               0 P-Residential              ;
 n2                           73.8737         0.16992 P-Residential              ;
 n3                           73.1782          0.1908 P-Residential              ;
 n4                           68.2608               0 P-Residential              ;
 n5                           65.5695          0.2322 P-Residential              ;
 n6                           70.9095          0.2466 P-Residential              ;
 n7                           75.9175         0.37836 P-Residential              ;
 n8                           64.4833         0.30132 P-Residential              ;
 n9                           69.2626         0.40464 P-Residential              ;
 n10                          74.3469         0.08424 P-Residential              ;
 n11                          63.0588         0.54432 P-Residential              ;
 n12                          68.2274         0.05832 P-Residential              ;
 n13                          61.9901          0.2358 P-Residential              ;
 n14                          68.5805         0.01944 P-Residential              ;
 n15                          70.9492         0.19152 P-Residential              ;
 n16                          68.7986         0.09648 P-Residential              ;
 n17                          60.5935         0.44892 P-Residential              ;
 n18                           67.142         0.07236 P-Residential              ;
 n19                          73.3626         0.12924 P-Residential              ;
 n20                          65.9549         0.14436 P-Residential              ;
 n21                          59.6849         0.06084 P-Residential              ;
 n22                          76.1173         0.15084 P-Residential              ;
 n23                          64.2052         0.02869 P-Residential              ;
 n24                          67.8217         0.04392 P-Residential              ;
 n25                          58.9717               0 P-Residential              ;
 n26                          61.6305         0.00468 P-Residential              ;
 n27                          65.7763         0.13068 P-Residential              ;
 n28                          61.4047               0 P-Residential              ;
 n29                          71.5429         0.04896 P-Residential              ;
 n30                          75.3299         0.30564 P-Residential              ;
 n31                          65.0059         0.11628 P-Residential              ;
 n32                           71.159         0.07992 P-Residential              ;
 n33                          60.5902         0.00288 P-Residential              ;
 n34                          65.8482         0.11232 P-Residential              ;
 n35                          59.6258               0 P-Residential              ;
 n36                          70.1959          0.2664 P-Residential              ;
 n37                          63.9172          0.0846 P-Residential              ;
 n38                          58.5794         0.18889 P-Residential              ;
 n39                          62.9791         0.01656 P-Residential              ;
 n40                          60.2093           0.342 P-Residential              ;
 n41                          69.2961         0.17028 P-Residential              ;
 n42                          61.0635           0.243 P-Residential              ;
 n43                          61.8585         0.11808 P-Residential              ;
 n44                          66.1177         0.03888 P-Residential              ;
 n45                          62.5989         0.27288 P-Residential              ;
 n46                          38.8781         0.06966 P-Residential              ;
 n47                          38.7028         0.14616 P-Residential              ;
 n48                          40.1135         0.21785 P-Residential              ;
 n49                          34.8665         0.10363 P-Residential              ;
 n50                          44.7174         0.38988 P-Residential              ;
 n51                          29.8508          0.3334 P-Residential              ;
 n52                          33.2106         0.04891 P-Residential              ;
 n53                          29.1285         0.29952 P-Residential              ;
 n54                          36.6718          0.0848 P-Residential              ;
 n55                          43.7044         0.25355 P-Residential              ;
 n56                          32.7019         0.31822 P-Residential              ;
 n57                          34.5788         0.06806 P-Residential              ;
 n58                          30.1017         0.16375 P-Residential              ;
 n59                           40.544         0.13478 P-Residential              ;
 n60                          36.5477         0.08755 P-Residential              ;
 n61                          36.5714         0.02633 P-Residential              ;
 n62                            35.96         0.07906 P-Residential              ;
 n63                          37.0071         0.15595 P-Residential              ;
 n64                          34.9234         0.15692 P-Residential              ;
 n65                          36.2244         0.04244 P-Residential              ;
 n66                           34.276         0.07326 P-Residential              ;
 n67                          32.5016         0.40471 P-Residential              ;
 n68                          41.0943         0.17813 P-Residential              ;
 n69                          27.7774         0.37723 P-Residential              ;
 n70                          29.8554          0.1782 P-Residential              ;
 n71                          30.0823         0.24183 P-Residential              ;
 n72                          34.4673         0.01949 P-Residential              ;
 n73                          33.0899         0.03154 P-Residential              ;
 n74                          32.3582          0.0491 P-Residential              ;
 n75                          40.1001         0.02443 P-Residential              ;
 n76                          30.5603         0.09745 P-Residential              ;
 n77                          33.9737         0.02948 P-Residential              ;
 n78                          29.2383         0.09988 P-Residential              ;
 n79                          32.7267         0.18274 P-Residential              ;
 n80                          27.7113          0.2583 P-Residential              ;
 n81                          31.0269         0.17222 P-Residential              ;
 n82                          39.6884         0.17608 P-Residential              ;
 n83                          35.7824           0.153 P-Residential              ;
 n84                          28.8092         0.14195 P-Residential              ;
 n85                          38.6811         0.00108 P-Residential              ;
 n86                          38.1149         0.18198 P-Residential              ;
 n87                          35.2466         0.00612 P-Residential              ;
 n88                          34.2301         0.07697 P-Residential              ;
 n89                          31.7913         0.01813 P-Residential              ;
 n90                          36.3955         0.10692 P-Residential              ;
 n91                          33.0649         0.01332 P-Residential              ;
 n92                          33.1049         0.01573 P-Residential              ;
 n93                          29.3998         0.16114 P-Residential              ;
 n94                          27.5188         0.53474 P-Residential              ;
 n95                          25.4416               0 P-Residential              ;
 n96                          24.1924          0.1387 P-Residential              ;
 n97                          27.2125         0.42466 P-Residential              ;
 n98                          25.5648         0.12312 P-Residential              ;
 n99                          23.3478         0.17172 P-Residential              ;
 n100                         25.0658         0.36382 P-Residential              ;
 n101                          24.157           0.126 P-Residential              ;
 n102                         23.6941         0.09448 P-Residential              ;
 n103                         24.3635         0.08467 P-Residential              ;
 n104                         20.9592               0 P-Residential              ;
 n105                          24.022          0.0014 P-Residential              ;
 n106                         23.5008         0.11196 P-Residential              ;
 n107                          23.541         0.00074 P-Residential              ;
 n108                         19.8166               0 P-Residential              ;
 n109                         23.4984        0.000578 P-Residential              ;
 n110                         23.8384         0.02804 P-Residential              ;
 n111                              25         0.36893 P-Residential              ;
 n112                         23.5656         0.11707 P-Residential              ;
 n113                         23.6071         0.12566 P-Residential              ;
 n114                         20.4764         0.08237 P-Residential              ;
 n115                         23.8321         0.00648 P-Residential              ;
 n116                          20.911         0.19019 P-Residential              ;
 n117                         26.9614         0.25834 P-Residential              ;
 n118                         19.0993               0 P-Residential              ;
 n119                         20.0895         0.24257 P-Residential              ;
 n120                         22.6201         0.08496 P-Residential              ;
 n121                         19.3967         0.00024 P-Residential              ;
 n122                         22.4946         0.10166 P-Residential              ;
 n123                         21.5338         0.13435 P-Residential              ;
 n124                         22.6501         0.01188 P-Residential              ;
 n125                         20.5899            0.05 P-Residential              ;
 n126                          19.167         0.23803 P-Residential              ;
 n127                         19.1187         0.00596 P-Residential              ;
 n128                         22.0969         0.11182 P-Residential              ;
 n129                          25.901         0.14202 P-Residential              ;
 n130                         22.1732          0.2047 P-Residential              ;
 n131                          19.552         0.11822 P-Residential              ;
 n132                         20.3762         0.13212 P-Residential              ;
 n133                         22.5783         0.27927 P-Residential              ;
 n134                         19.2113         0.00896 P-Residential              ;
 n135                         19.1205         0.11318 P-Residential              ;
 n136                         20.3013         0.33602 P-Residential              ;
 n137                         19.6856         0.03676 P-Residential              ;
 n138                          20.838         0.02727 P-Residential              ;
 n139                         19.6632               0 P-Residential              ;
 n140                         27.3504         0.11668 P-Residential              ;
 n141                         23.1252         0.21607 P-Residential              ;
 n142                         19.6239         0.03985 P-Residential              ;
 n143                         20.8754         0.12398 P-Residential              ;
 n144                         26.9472         0.33964 P-Residential              ;
 n145                         22.1344         0.12636 P-Residential              ;
 n146                         21.8276           0.173 P-Residential              ;
 n147                         19.9725          0.1579 P-Residential              ;
 n148                         20.1477           0.072 P-Residential              ;
 n149                         20.9496          0.0563 P-Residential              ;
 n150                         22.6861          0.0171 P-Residential              ;
 n151                         19.8447         0.03215 P-Residential              ;
 n152                         19.1334               0 P-Residential              ;
 n153                         22.6394         0.21319 P-Residential              ;
 n154                         20.3582         0.16153 P-Residential              ;
 n155                         26.3852         0.08989 P-Residential              ;
 n156                         20.0619          0.0168 P-Residential              ;
 n157                         20.4464          0.0268 P-Residential              ;
 n158                         19.7472               0 P-Residential              ;
 n159                         27.0053         0.14767 P-Residential              ;
 n160                         20.2078         0.23962 P-Residential              ;
 n161                         21.3197               0 P-Residential              ;
 n162                         26.9729         0.02106 P-Residential              ;
 n163                         21.6096         0.04685 P-Residential              ;
 n164                         20.2745         0.17852 P-Residential              ;
 n165                         19.8081         0.32357 P-Residential              ;
 n166                          20.275         0.23162 P-Residential              ;
 n167                         22.5413         0.15163 P-Residential              ;
 n168                         20.4384         0.04698 P-Residential              ;
 n169                         27.0181         0.06359 P-Residential              ;
 n170                         23.2339         0.56804 P-Residential              ;
 n171                         20.6067         0.21852 P-Residential              ;
 n172                         19.1601         0.05054 P-Residential              ;
 n173                         21.0596         0.17939 P-Residential              ;
 n174                         21.4292               0 P-Residential              ;
 n175                         19.3536         0.11794 P-Residential              ;
 n176                         27.7038         0.11452 P-Residential              ;
 n177                         19.3479         0.16733 P-Residential              ;
 n178                         21.9026         0.03784 P-Residential              ;
 n179                         19.4895               0 P-Residential              ;
 n180                         22.7778          0.0212 P-Residential              ;
 n181                         23.7049         0.12924 P-Residential              ;
 n182                          25.085         0.16182 P-Residential              ;
 n183                         19.3859         0.13435 P-Residential              ;
 n184                         27.2441         0.05353 P-Residential              ;
 n185                         19.0789         0.15725 P-Residential              ;
 n186                         21.8196         0.11016 P-Residential              ;
 n187                         19.0349         0.02351 P-Residential              ;
 n188                         18.8768         0.00036 P-Residential              ;
 n189                         18.6826         0.11642 P-Residential              ;
 n190                         19.6529         0.05832 P-Residential              ;
 n191                         27.4799         0.34571 P-Residential              ;
 n192                          22.206         0.25493 P-Residential              ;
 n193                         19.7041         0.02736 P-Residential              ;
 n194                         19.7601         0.02025 P-Residential              ;
 n195                         16.8285          0.0994 P-Residential              ;
 n196                         19.8226         0.07574 P-Residential              ;
 n197                         16.5799               0 P-Residential              ;
 n198                         22.8492               0 P-Residential              ;
 n199                         16.5475         0.15941 P-Residential              ;
 n200                         18.2407         0.14288 P-Residential              ;
 n201                          19.106         0.06221 P-Residential              ;
 n202                         17.9436         0.02819 P-Residential              ;
 n203                         22.0332          0.1908 P-Residential              ;
 n204                          16.436         0.06998 P-Residential              ;
 n205                          6.9791               0 P-Residential              ;
 n206                          7.9123               0 P-Residential              ;
 n207                          2.0579               0 P-Residential              ;
 n208                          5.9061               0 P-Residential              ;
 n209                          4.6117               0 P-Residential              ;
 n210                          2.7477               0 P-Residential              ;
 n211                          4.8451               0 P-Residential              ;
 n212                          2.3488               0 P-Residential              ;
 n213                          3.2427               0 P-Residential              ;
 n214                         16.8316         0.00894 P-Residential              ;
 n215                          2.0066               0 P-Residential              ;
 n216                          2.4091               0 P-Residential              ;
 n217                          1.8712               0 P-Residential              ;
 n218                         29.6006         0.13648 P-Residential              ;
 n219                         28.4518         0.12053 P-Residential              ;
 n220                         30.7523         0.18137 P-Residential              ;
 n221                         28.2232         0.08975 P-Residential              ;
 n222                         28.0585         0.00828 P-Residential              ;
 n223                         28.5629         0.04495 P-Residential              ;
 n224                         26.9114         0.11122 P-Residential              ;
 n225                            25.5         0.19604 P-Residential              ;
 n226                           6.113               0 P-Residential              ;
 n227                          5.7901               0 P-Residential              ;
 n228                         27.3852         0.10226 P-Residential              ;
 n229                         21.5781         0.17842 P-Residential              ;
 n230                         28.3962         0.04198 P-Residential              ;
 n231                          4.8639               0 P-Residential              ;
 n232                         26.0377         0.04068 P-Residential              ;
 n233                          4.4157               0 P-Residential              ;
 n234                          5.1036         0.09742 P-Residential              ;
 n235                         24.1047         0.27477 P-Residential              ;
 n236                          3.0871               0 P-Residential              ;
 n237                          4.0834         0.13003 P-Residential              ;
 n238                         24.6076         0.34164 P-Residential              ;
 n239                         22.9677         0.23594 P-Residential              ;
 n240                         28.8065         0.20297 P-Residential              ;
 n241                         22.1953         0.17762 P-Residential              ;
 n242                          2.3582               0 P-Residential              ;
 n243                          2.6564               0 P-Residential              ;
 n244                         21.2523         0.58954 P-Residential              ;
 n245                          28.661         0.10076 P-Residential              ;
 n246                          1.9044               0 P-Residential              ;
 n247                           2.117               0 P-Residential              ;
 n248                           29.31         0.16481 P-Residential              ;
 n249                         28.5347         0.04522 P-Residential              ;
 n250                          28.414         0.08975 P-Residential              ;
 n251                         21.3004           0.189 P-Residential              ;
 n252                         24.7044         0.13626 P-Residential              ;
 n253                          2.2871         0.18871 P-Residential              ;
 n254                          2.2175         0.00324 P-Residential              ;
 n255                         20.9378         0.00072 P-Residential              ;
 n256                          17.777         0.24264 P-Residential              ;
 n257                         28.3219         0.05373 P-Residential              ;
 n258                         24.7483         0.05029 P-Residential              ;
 n259                          24.601               0 P-Residential              ;
 n260                         17.7457          0.1265 P-Residential              ;
 n261                         16.7006         0.14148 P-Residential              ;
 n262                         24.2606         0.21595 P-Residential              ;
 n263                         24.6696         0.10402 P-Residential              ;
 n264                         20.6282               0 P-Residential              ;
 n265                         28.4319         0.03071 P-Residential              ;
 n266                          19.968         0.32069 P-Residential              ;
 n267                         23.3745         0.13117 P-Residential              ;
 n268                         21.9354         0.11255 P-Residential              ;
 n269                         26.1653         0.09756 P-Residential              ;
 n270                         20.8216          0.1773 P-Residential              ;
 n271                          34.039         0.14744 P-Residential              ;
 n272                         20.1368         0.13003 P-Residential              ;
 n273                         24.5091         0.26946 P-Residential              ;
 n274                         32.8648         0.01168 P-Residential              ;
 n275                         29.2533         0.08345 P-Residential              ;
 n276                         21.3002         0.20909 P-Residential              ;
 n277                          22.448         0.01692 P-Residential              ;
 n278                         22.0132         0.11088 P-Residential              ;
 n279                         21.7544         0.08381 P-Residential              ;
 n280                         29.6042         0.11866 P-Residential              ;
 n281                         31.2675         0.11993 P-Residential              ;
 n282                         30.4949         0.15779 P-Residential              ;
 n283                         27.4233          0.1444 P-Residential              ;
 n284                         26.3666         0.18079 P-Residential              ;
 n285                         20.4612          0.1896 P-Residential              ;
 n286                         29.0388         0.25715 P-Residential              ;
 n287                         33.0444               0 P-Residential              ;
 n288                         21.6218          0.0142 P-Residential              ;
 n289                         27.4463          0.0464 P-Residential              ;
 n290                         24.6247         0.15876 P-Residential              ;
 n291                         32.4985         0.15656 P-Residential              ;
 n292                         31.9495         0.08428 P-Residential              ;
 n293                         26.5282          0.1674 P-Residential              ;
 n294                         26.5192         0.04099 P-Residential              ;
 n295                         30.8274         0.14575 P-Residential              ;
 n296                         32.1966          0.0945 P-Residential              ;
 n297                         23.3934         0.18839 P-Residential              ;
 n298                         34.8909               0 P-Residential              ;
 n299                         26.7205         0.18144 P-Residential              ;
 n300                              35               0 P-Residential              ;
 n301                           23.52          0.0682 P-Residential              ;
 n302                         23.3123         0.16222 P-Residential              ;
 n303                         34.4994               0 P-Residential              ;
 n304                          32.978         0.10766 P-Residential              ;
 n305                         25.4869         0.22993 P-Residential              ;
 n306                         23.6839         0.22514 P-Residential              ;
 n307                         31.4204         0.14926 P-Residential              ;
 n308                         23.3861         0.09626 P-Residential              ;
 n309                         23.1678         0.26712 P-Residential              ;
 n310                           22.36         0.14803 P-Residential              ;
 n311                         29.5998         0.01915 P-Residential              ;
 n312                         22.0779         0.13349 P-Residential              ;
 n313                         21.7616         0.15516 P-Residential              ;
 n314                         29.6902         0.08208 P-Residential              ;
 n315                         22.7969         0.14105 P-Residential              ;
 n316                         29.3551         0.11466 P-Residential              ;
 n317                         22.2884         0.08093 P-Residential              ;
 n318                         23.5639         0.16934 P-Residential              ;
 n319                         30.4617         0.05263 P-Residential              ;
 n320                         28.2142         0.10174 P-Residential              ;
 n321                          21.897         0.11131 P-Residential              ;
 n322                         26.9371               0 P-Residential              ;
 n323                         26.0702         0.21002 P-Residential              ;
 n324                         24.9686          0.0126 P-Residential              ;
 n325                         24.3047         0.19022 P-Residential              ;
 n326                         23.6854         0.18718 P-Residential              ;
 n327                         22.2849         0.21555 P-Residential              ;
 n328                         22.1954          0.0527 P-Residential              ;
 n329                         24.3743          0.0072 P-Residential              ;
 n330                         22.0274          0.0851 P-Residential              ;
 n331                         22.9257         0.03082 P-Residential              ;
 n332                              18          0.0058 P-Residential              ;
 n333                              18         0.03938 P-Residential              ;
 n334                              18         0.07502 P-Residential              ;
 n335                           27.45         0.12953 P-Residential              ;
 n336                              26         0.30726 P-Residential              ;
 n337                             4.1               0 P-Residential              ;
 n338                            28.2               0 P-Residential              ;
 n339                            22.8         0.21607 P-Residential              ;
 n340                            30.1         0.45761 P-Residential              ;
 n341                            22.8         0.00216 P-Residential              ;
 n342                           27.36               0 P-Residential              ;
 n343                           66.12          0.1283 P-Residential              ;
 n344                           74.28          0.2664 P-Residential              ;
 n345                           71.23         0.05256 P-Residential              ;
 n346                           67.93         0.17856 P-Residential              ;
 n347                         73.6617               0 P-Residential              ;
 n348                         74.1128         0.02988 P-Residential              ;
 n349                          74.564         0.05976 P-Residential              ;
 n350                         75.0152         0.20844 P-Residential              ;
 n351                         75.4663          0.3924 P-Residential              ;
 n352                         74.1103          0.1332 P-Residential              ;
 n353                         73.5455         0.29268 P-Residential              ;
 n354                         73.9127         0.12312 P-Residential              ;
 n355                         66.4555         0.43812 P-Residential              ;
 n356                         67.3414          0.1242 P-Residential              ;
 n357                          69.745         0.10224 P-Residential              ;