; Filename: ./water_networks/anytown.inp
; WNTR: 0.3.1
; Created: 2021-07-30 11:46:04
[TITLE]
Anytown master file for rl-wds

[JUNCTIONS]
;ID                      Elevation       Demand Pattern                 
 1                              6.096       31.545834 1                          ;
 2                              15.24       12.618333 1                          ;
 3                              15.24       12.618333 1                          ;
 4                              15.24          37.855 1                          ;
 5                             24.384          37.855 1                          ;
 6                             24.384          37.855 1                          ;
 7                             24.384          37.855 1                          ;
 8                             24.384       25.236666 1                          ;
 9                             36.576       25.236666 1                          ;
 10                            36.576       25.236666 1                          ;
 11                            36.576       25.236666 1                          ;
 12                             15.24       31.545834 1                          ;
 13                             15.24       31.545834 1                          ;
 14                             15.24       31.545834 1                          ;
 15                             15.24       31.545834 1                          ;
 16                            36.576       25.236666 1                          ;
 17                            36.576       63.091668 1                          ;
 18                             15.24       31.545834 1                          ;
 19                             15.24       63.091668 1                          ;
 20                             6.096               0 1                          ;
 21                             15.24               0 1                          ;
 22                            36.576               0 1                          ;

[RESERVOIRS]
;ID                                   Head                  Pattern
 40                             3.048                            ;

[TANKS]
;ID                              Elevation           Init Level            Min Level            Max Level             Diameter           Min Volume Volume Curve         Overflow            
 41                            66.535           3.051           3.048          10.668          9.9532          237.08                                             ;
 42                            66.535           3.051           3.048          10.668          9.9532          237.08                                             ;

[PIPES]
;ID                   Node1                Node2                              Length             Diameter            Roughness           Minor Loss               Status
 1                    1                    2                          3657.6001           304.8             120               0                 Open   ;
 2                    1                    12                         3657.6001           304.8              70               0                 Open   ;
 3                    1                    13                         3657.6001           406.4              70               0                 Open   ;
 4                    1                    20                             30.48             762             130               0                 Open   ;
 5                    2                    3                             1828.8             254             120               0                 Open   ;
 6                    2                    4                             2743.2             254             120               0                 Open   ;
 7                    2                    13                            2743.2           304.8              70               0                 Open   ;
 8                    2                    14                            1828.8             254             120               0                 Open   ;
 9                    3                    4                             1828.8             254             120               0                 Open   ;
 11                   4                    8                          3657.6001           203.2             120               0                 Open   ;
 12                   4                    15                            1828.8             254             120               0                 Open   ;
 17                   8                    9                          3657.6001           203.2             120               0                 Open   ;
 18                   8                    15                            1828.8             254             120               0                 Open   ;
 19                   8                    16                            1828.8           203.2             120               0                 Open   ;
 20                   8                    17                            1828.8           203.2             120               0                 Open   ;
 21                   9                    10                            1828.8           203.2             120               0                 Open   ;
 22                   10                   11                            1828.8           203.2             120               0                 Open   ;
 23                   10                   17                            1828.8             254             120               0                 Open   ;
 24                   11                   12                            1828.8           203.2             120               0                 Open   ;
 26                   12                   17                            1828.8             254             120               0                 Open   ;
 27                   12                   18                            1828.8           203.2              70               0                 Open   ;
 28                   13                   14                            1828.8           304.8              70               0                 Open   ;
 29                   13                   18                            1828.8           304.8              70               0                 Open   ;
 30                   13                   19                            1828.8             254              70               0                 Open   ;
 31                   14                   15                            1828.8           304.8              70               0                 Open   ;
 32                   14                   19                            1828.8             254              70               0                 Open   ;
 33                   14                   21                             30.48           304.8             120               0                 Open   ;
 34                   15                   16                            1828.8             254              70               0                 Open   ;
 35                   15                   19                            1828.8             254              70               0                 Open   ;
 36                   16                   17                            1828.8           203.2             120               0                 Open   ;
 37                   16                   18                            1828.8           304.8              70               0                 Open   ;
 38                   16                   19                            1828.8             254              70               0                 Open   ;
 39                   17                   18                            1828.8           203.2             120               0                 Open   ;
 40                   17                   22                             30.48           304.8             120               0                 Open   ;
 41                   18                   19                            1828.8             254              70               0                 Open   ;
 142                  21                   41                            0.3048           304.8             120               0                 Open   ;
 143                  22                   42                            0.3048           304.8             120               0                 Open   ;
 110                  4                    5                             1828.8           203.2             130               0                 Open   ;
 113                  5                    6                             1828.8           203.2             130               0                 Open   ;
 114                  6                    7                             1828.8           203.2             130               0                 Open   ;
 115                  6                    8                             1828.8           203.2             130               0                 Open   ;
 116                  7                    8                             1828.8           203.2             130               0                 Open   ;
 125                  11                   17                            2743.2           203.2             130               0                 Open   ;

[PUMPS]
;ID                   Node1                Node2                Properties          
 78g1                 40                   20                   HEAD     H1                     ;
 79g1                 40                   20                   HEAD     H1                     ;

[VALVES]
;ID                   Node1                Node2                            Diameter Type              Setting           Minor Loss

[TAGS]
;type      name       tag       

[DEMANDS]
;ID        Demand     Pattern   

[STATUS]
;ID        Setting   
[PATTERNS]
;ID        Multipliers

1 1.000000 1.000000 1.000000 1.000000 1.000000 1.000000

4 0.000000 0.000000 0.000000 0.000000 0.000000 0.000000

[CURVES]
;ID         X-Value      Y-Value     
;PUMP: H1
 H1             0.000000    91.440000   ;
 H1           126.183300    89.000000   ;
 H1           252.366700    82.296000   ;
 H1           378.550000    70.104000   ;
 H1           504.733300    55.169000   ;
 H1           805.555600     0.000000   ;

;UNKNOWN: E1
 E1             0.000000     0.000000   ;
 E1           126.183300     0.500000   ;
 E1           252.366700     0.650000   ;
 E1           378.550000     0.550000   ;
 E1           504.733300     0.400000   ;
 E1           805.555600     0.000000   ;


[CONTROLS]

[RULES]

[ENERGY]
GLOBAL EFFICIENCY      75.0000
GLOBAL PRICE           0.0000
DEMAND CHARGE          0.0000

[EMITTERS]
;ID        Flow coefficient

[QUALITY]

[SOURCES]
;Node      Type       Quality    Pattern   

[REACTIONS]
;Type           Pipe/Tank               Coefficient

 ORDER BULK 1
 ORDER TANK 1
 ORDER WALL 1
 GLOBAL BULK 0.0000    
 GLOBAL WALL 0.0000    
 LIMITING POTENTIAL 0.0000    
 ROUGHNESS CORRELATION 0.0000    

[MIXING]
;Tank ID             Model Fraction

[TIMES]
DURATION             00:00:00
HYDRAULIC TIMESTEP   00:01:00
QUALITY TIMESTEP     00:01:00
PATTERN TIMESTEP     01:00:00
PATTERN START        00:00:00
REPORT TIMESTEP      01:00:00
REPORT START         00:00:00
START CLOCKTIME      06:00:00 PM
RULE TIMESTEP        00:06:00
STATISTIC            NONE      

[REPORT]
SUMMARY    NO
PAGE       0

[OPTIONS]
UNITS                LPS                 
HEADLOSS             H-W                 
SPECIFIC GRAVITY     1
VISCOSITY            1
TRIALS               200
ACCURACY             0.001
CHECKFREQ            2
MAXCHECK             10
UNBALANCED           STOP                
PATTERN              1                   
DEMAND MULTIPLIER    1
EMITTER EXPONENT     0.5
QUALITY              NONE                
DIFFUSIVITY          1
TOLERANCE            0.01

[COORDINATES]
;Node      X-Coord    Y-Coord   
1                7682.330000000       3371.150000000
2                7633.710000000       5737.440000000
3                7520.260000000       7293.350000000
4                6175.040000000       7568.880000000
5                5591.570000000       8460.290000000
6                4100.490000000       8071.310000000
7                3192.870000000       7763.370000000
8                3321.190000000       6696.550000000
9                1305.620000000       4850.970000000
10               2317.450000000       3588.200000000
11               3701.630000000       2892.060000000
12               4846.030000000       3354.940000000
13               6450.570000000       4424.640000000
14               6466.770000000       5769.850000000
15               5094.450000000       6482.090000000
16               4017.860000000       5615.960000000
17               3005.490000000       4292.430000000
18               4846.030000000       4440.840000000
19               5332.250000000       5332.250000000
20               8544.180000000       3371.150000000
21               6094.000000000       6499.190000000
22               2422.680000000       4519.090000000
40               8700.600000000       3371.150000000
41               6094.000000000       6600.190000000
42               2422.680000000       4700.090000000

[VERTICES]
;Link      X-Coord    Y-Coord   

[LABELS]

[BACKDROP]
DIMENSIONS    935.87    2613.65    9070.35    8738.70
UNITS    NONE
OFFSET    0.00    0.00

[END]
